Version 4
SHEET 1 880 680
WIRE -16 32 -16 16
WIRE -16 32 -144 32
WIRE 112 48 80 48
WIRE 208 48 192 48
WIRE 224 48 208 48
WIRE 336 48 304 48
WIRE -16 64 -16 32
WIRE -144 80 -144 32
WIRE 208 160 208 48
WIRE 240 160 208 160
WIRE 336 176 336 48
WIRE 336 176 304 176
WIRE 384 176 336 176
WIRE 240 192 160 192
WIRE 80 224 80 48
WIRE 160 224 160 192
WIRE 80 320 80 304
WIRE 160 320 160 304
WIRE 160 320 80 320
WIRE 80 336 80 320
FLAG -144 80 0
FLAG -16 144 -12
FLAG -16 -64 +12
FLAG 272 144 +12
FLAG 272 208 -12
FLAG 80 336 0
FLAG 384 176 Output
SYMBOL OpAmps\\AD823 272 112 R0
SYMATTR InstName U1
SYMBOL voltage 160 208 R0
WINDOW 123 0 0 Left 0
WINDOW 39 0 0 Left 0
SYMATTR InstName V1
SYMATTR Value 0
SYMBOL voltage -16 -80 R0
WINDOW 123 0 0 Left 0
WINDOW 39 0 0 Left 0
SYMATTR InstName V2
SYMATTR Value 12
SYMBOL voltage -16 48 R0
WINDOW 123 0 0 Left 0
WINDOW 39 0 0 Left 0
SYMATTR InstName V3
SYMATTR Value 12
SYMBOL voltage 80 208 R0
WINDOW 3 -195 56 Left 2
WINDOW 123 0 0 Left 0
WINDOW 39 0 0 Left 0
SYMATTR InstName V4
SYMATTR Value SINE(0 3.3 1)
SYMBOL res 320 32 R90
WINDOW 0 0 56 VBottom 2
WINDOW 3 32 56 VTop 2
SYMATTR InstName R1
SYMATTR Value 332K
SYMBOL res 208 32 R90
WINDOW 0 0 56 VBottom 2
WINDOW 3 32 56 VTop 2
SYMATTR InstName R2
SYMATTR Value 100K
